[H]OC(=O)C([H])([H])C([H])([H])C([H])([H])N1C([H])([H])C([H])([H])C([H])(OC([H])(c2nc([H])c([H])c([H])c2[H])c2c([H])c([H])c(Cl)c([H])c2[H])C([H])([H])C1([H])[H]
     RDKit          3D

 52 54  0  0  0  0  0  0  0  0999 V2000
    6.8596    1.4457   -2.3929 O   0  0  0  0  0  0  0  0  0  0  0  0
    6.3753    0.8315   -1.2952 C   0  0  0  0  0  0  0  0  0  0  0  0
    6.6755    1.2275   -0.1833 O   0  0  0  0  0  0  0  0  0  0  0  0
    5.4990   -0.3389   -1.6524 C   0  0  0  0  0  0  0  0  0  0  0  0
    4.7204   -0.8963   -0.4596 C   0  0  0  0  0  0  0  0  0  0  0  0
    3.5879    0.0429   -0.0149 C   0  0  0  0  0  0  0  0  0  0  0  0
    2.8642   -0.4289    1.1768 N   0  0  0  0  0  0  0  0  0  0  0  0
    2.1744   -1.7101    1.0141 C   0  0  0  0  0  0  0  0  0  0  0  0
    0.9693   -1.6443    0.0755 C   0  0  0  0  0  0  0  0  0  0  0  0
    0.1428   -0.3638    0.2620 C   0  0  0  0  0  0  0  0  0  0  0  0
   -1.2373   -0.7281    0.1571 O   0  0  0  0  0  0  0  0  0  0  0  0
   -2.1356    0.3845   -0.0092 C   0  0  0  0  0  0  0  0  0  0  0  0
   -2.9402    0.5938    1.2698 C   0  0  0  0  0  0  0  0  0  0  0  0
   -3.0246    1.8650    1.7514 N   0  0  0  0  0  0  0  0  0  0  0  0
   -3.7410    2.0551    2.8813 C   0  0  0  0  0  0  0  0  0  0  0  0
   -4.3866    1.0402    3.5662 C   0  0  0  0  0  0  0  0  0  0  0  0
   -4.2947   -0.2519    3.0651 C   0  0  0  0  0  0  0  0  0  0  0  0
   -3.5644   -0.4821    1.9031 C   0  0  0  0  0  0  0  0  0  0  0  0
   -3.0320    0.1571   -1.2250 C   0  0  0  0  0  0  0  0  0  0  0  0
   -3.1580   -1.1012   -1.8374 C   0  0  0  0  0  0  0  0  0  0  0  0
   -3.9929   -1.2761   -2.9445 C   0  0  0  0  0  0  0  0  0  0  0  0
   -4.7125   -0.1953   -3.4477 C   0  0  0  0  0  0  0  0  0  0  0  0
   -5.7407   -0.4124   -4.8101 Cl  0  0  0  0  0  0  0  0  0  0  0  0
   -4.6064    1.0594   -2.8536 C   0  0  0  0  0  0  0  0  0  0  0  0
   -3.7711    1.2343   -1.7476 C   0  0  0  0  0  0  0  0  0  0  0  0
    0.4658    0.2921    1.6028 C   0  0  0  0  0  0  0  0  0  0  0  0
    1.9614    0.6088    1.7095 C   0  0  0  0  0  0  0  0  0  0  0  0
    7.4211    2.1646   -2.0332 H   0  0  0  0  0  0  0  0  0  0  0  0
    6.1526   -1.1232   -2.0506 H   0  0  0  0  0  0  0  0  0  0  0  0
    4.8018   -0.0339   -2.4407 H   0  0  0  0  0  0  0  0  0  0  0  0
    4.3055   -1.8624   -0.7670 H   0  0  0  0  0  0  0  0  0  0  0  0
    5.4000   -1.0853    0.3804 H   0  0  0  0  0  0  0  0  0  0  0  0
    2.8981    0.2112   -0.8508 H   0  0  0  0  0  0  0  0  0  0  0  0
    4.0374    1.0156    0.2197 H   0  0  0  0  0  0  0  0  0  0  0  0
    1.8365   -2.0454    2.0044 H   0  0  0  0  0  0  0  0  0  0  0  0
    2.8581   -2.5008    0.6881 H   0  0  0  0  0  0  0  0  0  0  0  0
    1.3058   -1.6954   -0.9679 H   0  0  0  0  0  0  0  0  0  0  0  0
    0.3491   -2.5362    0.2308 H   0  0  0  0  0  0  0  0  0  0  0  0
    0.3899    0.3233   -0.5583 H   0  0  0  0  0  0  0  0  0  0  0  0
   -1.5564    1.2960   -0.2125 H   0  0  0  0  0  0  0  0  0  0  0  0
   -3.7844    3.0815    3.2345 H   0  0  0  0  0  0  0  0  0  0  0  0
   -4.9481    1.2516    4.4691 H   0  0  0  0  0  0  0  0  0  0  0  0
   -4.7870   -1.0756    3.5738 H   0  0  0  0  0  0  0  0  0  0  0  0
   -3.4786   -1.4855    1.4972 H   0  0  0  0  0  0  0  0  0  0  0  0
   -2.6052   -1.9574   -1.4553 H   0  0  0  0  0  0  0  0  0  0  0  0
   -4.0765   -2.2563   -3.4057 H   0  0  0  0  0  0  0  0  0  0  0  0
   -5.1709    1.9030   -3.2412 H   0  0  0  0  0  0  0  0  0  0  0  0
   -3.7034    2.2182   -1.2843 H   0  0  0  0  0  0  0  0  0  0  0  0
   -0.1056    1.2169    1.7369 H   0  0  0  0  0  0  0  0  0  0  0  0
    0.1518   -0.3680    2.4222 H   0  0  0  0  0  0  0  0  0  0  0  0
    2.1464    1.5799    1.2321 H   0  0  0  0  0  0  0  0  0  0  0  0
    2.2048    0.7550    2.7689 H   0  0  0  0  0  0  0  0  0  0  0  0
  1  2  1  0
  2  3  2  0
  2  4  1  0
  4  5  1  0
  5  6  1  0
  6  7  1  0
  7  8  1  0
  8  9  1  0
  9 10  1  0
 10 11  1  0
 11 12  1  0
 12 13  1  0
 13 14  2  0
 14 15  1  0
 15 16  2  0
 16 17  1  0
 17 18  2  0
 12 19  1  0
 19 20  2  0
 20 21  1  0
 21 22  2  0
 22 23  1  0
 22 24  1  0
 24 25  2  0
 10 26  1  0
 26 27  1  0
 27  7  1  0
 18 13  1  0
 25 19  1  0
  1 28  1  0
  4 29  1  0
  4 30  1  0
  5 31  1  0
  5 32  1  0
  6 33  1  0
  6 34  1  0
  8 35  1  0
  8 36  1  0
  9 37  1  0
  9 38  1  0
 10 39  1  0
 12 40  1  0
 15 41  1  0
 16 42  1  0
 17 43  1  0
 18 44  1  0
 20 45  1  0
 21 46  1  0
 24 47  1  0
 25 48  1  0
 26 49  1  0
 26 50  1  0
 27 51  1  0
 27 52  1  0
M  END
$$$$
[H]OC(c1c([H])c([H])c([H])c([H])c1[H])(c1c([H])c([H])c([H])c([H])c1[H])C1([H])C([H])([H])N2C([H])([H])C([H])([H])C1([H])C([H])([H])C2([H])[H]
     RDKit          3D

 45 48  0  0  0  0  0  0  0  0999 V2000
    0.9729    0.6941   -1.4106 O   0  0  0  0  0  0  0  0  0  0  0  0
    0.5893    0.3279   -0.0710 C   0  0  0  0  0  0  0  0  0  0  0  0
    0.9505    1.5321    0.8322 C   0  0  0  0  0  0  0  0  0  0  0  0
    0.0996    2.0409    1.8275 C   0  0  0  0  0  0  0  0  0  0  0  0
    0.4844    3.1271    2.6207 C   0  0  0  0  0  0  0  0  0  0  0  0
    1.7326    3.7176    2.4472 C   0  0  0  0  0  0  0  0  0  0  0  0
    2.6045    3.2177    1.4868 C   0  0  0  0  0  0  0  0  0  0  0  0
    2.2203    2.1346    0.6938 C   0  0  0  0  0  0  0  0  0  0  0  0
    1.4151   -0.9001    0.3660 C   0  0  0  0  0  0  0  0  0  0  0  0
    2.3027   -1.5442   -0.5148 C   0  0  0  0  0  0  0  0  0  0  0  0
    3.0378   -2.6607   -0.1089 C   0  0  0  0  0  0  0  0  0  0  0  0
    2.9012   -3.1545    1.1854 C   0  0  0  0  0  0  0  0  0  0  0  0
    2.0301   -2.5330    2.0755 C   0  0  0  0  0  0  0  0  0  0  0  0
    1.2936   -1.4172    1.6707 C   0  0  0  0  0  0  0  0  0  0  0  0
   -0.9405   -0.0473   -0.1176 C   0  0  0  0  0  0  0  0  0  0  0  0
   -1.8345    1.1037   -0.6613 C   0  0  0  0  0  0  0  0  0  0  0  0
   -2.8541    0.6341   -1.6280 N   0  0  0  0  0  0  0  0  0  0  0  0
   -2.1488    0.0942   -2.8116 C   0  0  0  0  0  0  0  0  0  0  0  0
   -1.2384   -1.0849   -2.4433 C   0  0  0  0  0  0  0  0  0  0  0  0
   -1.3076   -1.3330   -0.9289 C   0  0  0  0  0  0  0  0  0  0  0  0
   -2.7864   -1.6457   -0.6149 C   0  0  0  0  0  0  0  0  0  0  0  0
   -3.6550   -0.4424   -1.0102 C   0  0  0  0  0  0  0  0  0  0  0  0
    0.9067    1.6611   -1.4819 H   0  0  0  0  0  0  0  0  0  0  0  0
   -0.8745    1.6031    2.0233 H   0  0  0  0  0  0  0  0  0  0  0  0
   -0.1919    3.5076    3.3825 H   0  0  0  0  0  0  0  0  0  0  0  0
    2.0296    4.5584    3.0683 H   0  0  0  0  0  0  0  0  0  0  0  0
    3.5879    3.6625    1.3582 H   0  0  0  0  0  0  0  0  0  0  0  0
    2.9298    1.7458   -0.0366 H   0  0  0  0  0  0  0  0  0  0  0  0
    2.4257   -1.1826   -1.5337 H   0  0  0  0  0  0  0  0  0  0  0  0
    3.7169   -3.1433   -0.8068 H   0  0  0  0  0  0  0  0  0  0  0  0
    3.4749   -4.0219    1.5002 H   0  0  0  0  0  0  0  0  0  0  0  0
    1.9249   -2.9141    3.0879 H   0  0  0  0  0  0  0  0  0  0  0  0
    0.6254   -0.9486    2.3897 H   0  0  0  0  0  0  0  0  0  0  0  0
   -1.2612   -0.2540    0.9138 H   0  0  0  0  0  0  0  0  0  0  0  0
   -1.2485    1.9038   -1.1273 H   0  0  0  0  0  0  0  0  0  0  0  0
   -2.3547    1.5858    0.1761 H   0  0  0  0  0  0  0  0  0  0  0  0
   -1.5600    0.8887   -3.2871 H   0  0  0  0  0  0  0  0  0  0  0  0
   -2.8809   -0.2190   -3.5665 H   0  0  0  0  0  0  0  0  0  0  0  0
   -1.5722   -1.9832   -2.9781 H   0  0  0  0  0  0  0  0  0  0  0  0
   -0.2127   -0.8995   -2.7733 H   0  0  0  0  0  0  0  0  0  0  0  0
   -0.6928   -2.1925   -0.6476 H   0  0  0  0  0  0  0  0  0  0  0  0
   -3.1081   -2.5375   -1.1664 H   0  0  0  0  0  0  0  0  0  0  0  0
   -2.9110   -1.8659    0.4520 H   0  0  0  0  0  0  0  0  0  0  0  0
   -4.1793   -0.0533   -0.1284 H   0  0  0  0  0  0  0  0  0  0  0  0
   -4.4431   -0.7623   -1.7031 H   0  0  0  0  0  0  0  0  0  0  0  0
  1  2  1  0
  2  3  1  0
  3  4  2  0
  4  5  1  0
  5  6  2  0
  6  7  1  0
  7  8  2  0
  2  9  1  0
  9 10  2  0
 10 11  1  0
 11 12  2  0
 12 13  1  0
 13 14  2  0
  2 15  1  0
 15 16  1  0
 16 17  1  0
 17 18  1  0
 18 19  1  0
 19 20  1  0
 20 21  1  0
 21 22  1  0
  8  3  1  0
 14  9  1  0
 20 15  1  0
 22 17  1  0
  1 23  1  0
  4 24  1  0
  5 25  1  0
  6 26  1  0
  7 27  1  0
  8 28  1  0
 10 29  1  0
 11 30  1  0
 12 31  1  0
 13 32  1  0
 14 33  1  0
 15 34  1  0
 16 35  1  0
 16 36  1  0
 18 37  1  0
 18 38  1  0
 19 39  1  0
 19 40  1  0
 20 41  1  0
 21 42  1  0
 21 43  1  0
 22 44  1  0
 22 45  1  0
M  END
$$$$
[H]c1nc2c(c([H])c1[H])C([H])([H])C([H])([H])c1c([H])c(Cl)c([H])c([H])c1C2=C1C([H])([H])C([H])([H])N(C([H])([H])c2c([H])nc([H])c(C([H])([H])[H])c2[H])C([H])([H])C1([H])[H]
     RDKit          3D

 56 60  0  0  0  0  0  0  0  0999 V2000
   -2.5751    1.2080    3.7105 C   0  0  0  0  0  0  0  0  0  0  0  0
   -2.1212    0.3315    2.7932 N   0  0  0  0  0  0  0  0  0  0  0  0
   -2.5872    0.4404    1.5186 C   0  0  0  0  0  0  0  0  0  0  0  0
   -3.5219    1.4116    1.1314 C   0  0  0  0  0  0  0  0  0  0  0  0
   -3.9663    2.2993    2.1278 C   0  0  0  0  0  0  0  0  0  0  0  0
   -3.4883    2.2024    3.4292 C   0  0  0  0  0  0  0  0  0  0  0  0
   -4.1295    1.5741   -0.2480 C   0  0  0  0  0  0  0  0  0  0  0  0
   -3.5552    0.7858   -1.4330 C   0  0  0  0  0  0  0  0  0  0  0  0
   -3.7265   -0.7030   -1.2549 C   0  0  0  0  0  0  0  0  0  0  0  0
   -4.6310   -1.4271   -2.0440 C   0  0  0  0  0  0  0  0  0  0  0  0
   -4.8194   -2.7907   -1.8161 C   0  0  0  0  0  0  0  0  0  0  0  0
   -5.9344   -3.6707   -2.7878 Cl  0  0  0  0  0  0  0  0  0  0  0  0
   -4.1240   -3.4435   -0.8004 C   0  0  0  0  0  0  0  0  0  0  0  0
   -3.2203   -2.7299   -0.0120 C   0  0  0  0  0  0  0  0  0  0  0  0
   -3.0007   -1.3668   -0.2502 C   0  0  0  0  0  0  0  0  0  0  0  0
   -2.0535   -0.5817    0.5768 C   0  0  0  0  0  0  0  0  0  0  0  0
   -0.7124   -0.7221    0.3821 C   0  0  0  0  0  0  0  0  0  0  0  0
    0.3390    0.1314    1.0861 C   0  0  0  0  0  0  0  0  0  0  0  0
    1.5581    0.3745    0.1796 C   0  0  0  0  0  0  0  0  0  0  0  0
    2.2718   -0.8629   -0.1996 N   0  0  0  0  0  0  0  0  0  0  0  0
    3.0158   -0.6961   -1.4590 C   0  0  0  0  0  0  0  0  0  0  0  0
    4.1203    0.3283   -1.3798 C   0  0  0  0  0  0  0  0  0  0  0  0
    4.2014    1.3675   -2.3000 C   0  0  0  0  0  0  0  0  0  0  0  0
    5.1762    2.3042   -2.3069 N   0  0  0  0  0  0  0  0  0  0  0  0
    6.1202    2.2021   -1.3449 C   0  0  0  0  0  0  0  0  0  0  0  0
    6.1374    1.2134   -0.3682 C   0  0  0  0  0  0  0  0  0  0  0  0
    7.2342    1.1436    0.6450 C   0  0  0  0  0  0  0  0  0  0  0  0
    5.1227    0.2548   -0.4061 C   0  0  0  0  0  0  0  0  0  0  0  0
    1.3719   -2.0286   -0.2492 C   0  0  0  0  0  0  0  0  0  0  0  0
   -0.0875   -1.6991   -0.6069 C   0  0  0  0  0  0  0  0  0  0  0  0
   -2.1715    1.0818    4.7106 H   0  0  0  0  0  0  0  0  0  0  0  0
   -4.6969    3.0696    1.8895 H   0  0  0  0  0  0  0  0  0  0  0  0
   -3.8259    2.8818    4.2034 H   0  0  0  0  0  0  0  0  0  0  0  0
   -5.1997    1.3399   -0.1612 H   0  0  0  0  0  0  0  0  0  0  0  0
   -4.0582    2.6378   -0.5127 H   0  0  0  0  0  0  0  0  0  0  0  0
   -4.0712    1.1056   -2.3473 H   0  0  0  0  0  0  0  0  0  0  0  0
   -2.4965    1.0265   -1.5915 H   0  0  0  0  0  0  0  0  0  0  0  0
   -5.1979   -0.9288   -2.8264 H   0  0  0  0  0  0  0  0  0  0  0  0
   -4.2832   -4.5019   -0.6137 H   0  0  0  0  0  0  0  0  0  0  0  0
   -2.6872   -3.2363    0.7900 H   0  0  0  0  0  0  0  0  0  0  0  0
    0.6569   -0.3712    2.0081 H   0  0  0  0  0  0  0  0  0  0  0  0
   -0.0566    1.1145    1.3622 H   0  0  0  0  0  0  0  0  0  0  0  0
    2.2554    1.0377    0.7050 H   0  0  0  0  0  0  0  0  0  0  0  0
    1.2112    0.9141   -0.7130 H   0  0  0  0  0  0  0  0  0  0  0  0
    2.3267   -0.4560   -2.2796 H   0  0  0  0  0  0  0  0  0  0  0  0
    3.5000   -1.6437   -1.7311 H   0  0  0  0  0  0  0  0  0  0  0  0
    3.4623    1.4831   -3.0881 H   0  0  0  0  0  0  0  0  0  0  0  0
    6.8911    2.9671   -1.3850 H   0  0  0  0  0  0  0  0  0  0  0  0
    6.8729    0.7068    1.5820 H   0  0  0  0  0  0  0  0  0  0  0  0
    7.6150    2.1433    0.8789 H   0  0  0  0  0  0  0  0  0  0  0  0
    8.0582    0.5319    0.2650 H   0  0  0  0  0  0  0  0  0  0  0  0
    5.0984   -0.5489    0.3275 H   0  0  0  0  0  0  0  0  0  0  0  0
    1.3896   -2.4993    0.7431 H   0  0  0  0  0  0  0  0  0  0  0  0
    1.7519   -2.7965   -0.9347 H   0  0  0  0  0  0  0  0  0  0  0  0
   -0.1262   -1.2628   -1.6129 H   0  0  0  0  0  0  0  0  0  0  0  0
   -0.6330   -2.6462   -0.6361 H   0  0  0  0  0  0  0  0  0  0  0  0
  1  2  2  0
  2  3  1  0
  3  4  2  0
  4  5  1  0
  5  6  2  0
  4  7  1  0
  7  8  1  0
  8  9  1  0
  9 10  2  0
 10 11  1  0
 11 12  1  0
 11 13  2  0
 13 14  1  0
 14 15  2  0
 15 16  1  0
 16 17  2  3
 17 18  1  0
 18 19  1  0
 19 20  1  0
 20 21  1  0
 21 22  1  0
 22 23  2  0
 23 24  1  0
 24 25  2  0
 25 26  1  0
 26 27  1  0
 26 28  2  0
 20 29  1  0
 29 30  1  0
  6  1  1  0
 15  9  1  0
 30 17  1  0
 16  3  1  0
 28 22  1  0
  1 31  1  0
  5 32  1  0
  6 33  1  0
  7 34  1  0
  7 35  1  0
  8 36  1  0
  8 37  1  0
 10 38  1  0
 13 39  1  0
 14 40  1  0
 18 41  1  0
 18 42  1  0
 19 43  1  0
 19 44  1  0
 21 45  1  0
 21 46  1  0
 23 47  1  0
 25 48  1  0
 27 49  1  0
 27 50  1  0
 27 51  1  0
 28 52  1  0
 29 53  1  0
 29 54  1  0
 30 55  1  0
 30 56  1  0
M  END
$$$$
